Program Version,EnergyPlus-Darwin-OMP-64 8.0.0.008, YMD=2013.11.09 12:26,IDD_Version 8.0.0.008
   ** Warning ** ProcessScheduleInput: Schedule:Compact="HVACTEMPLATE-ALWAYS 4", Schedule Type Limits Name="HVACTEMPLATE ANY NUMBER" not found -- will not be validated
   ** Warning ** GetSurfaces: Surfaces with interface to Ground found but no "Ground Temperatures" were input.
   **   ~~~   ** Found first in surface=SURFACE 1
   **   ~~~   ** Defaults, constant throughout the year of (18.0) will be used.
   ** Warning ** CheckUsedConstructions: There are 9 nominally unused constructions in input.
   **   ~~~   ** For explicit details on each unused construction, use Output:Diagnostics,DisplayExtraWarnings;
   ** Warning ** Output:Meter: invalid Name="GAS:FACILITY" - not found.
   ************* Testing Individual Branch Integrity
   ************* All Branches passed integrity testing
   ************* Testing Individual Supply Air Path Integrity
   ************* All Supply Air Paths passed integrity testing
   ************* Testing Individual Return Air Path Integrity
   ************* All Return Air Paths passed integrity testing
   ************* No node connection errors were found.
   ************* Beginning Simulation
   ************* Simulation Error Summary *************
   ************* There are 8 unused schedules in input.
   ************* There are 10 unused week schedules in input.
   ************* There are 25 unused day schedules in input.
   ************* Use Output:Diagnostics,DisplayUnusedSchedules; to see them.
   *************
   ************* ===== Final Error Summary =====
   ************* The following error categories occurred.  Consider correcting or noting.
   ************* Nominally Unused Constructions
   ************* ..The nominally unused constructions warning is provided to alert you to potential conditions that can cause
   ************* ..extra time during simulation. Each construction is calculated by the algorithm indicated in the HeatBalanceAlgorithm
   ************* ..object. You may remove the constructions indicated (when you use the DisplayExtraWarnings option).
   *************
   ************* EnergyPlus Warmup Error Summary. During Warmup: 0 Warning; 0 Severe Errors.
   ************* EnergyPlus Sizing Error Summary. During Sizing: 0 Warning; 0 Severe Errors.
   ************* EnergyPlus Completed Successfully-- 4 Warning; 0 Severe Errors; Elapsed Time=00hr 00min 13.29sec
